Version 4
SHEET 1 980 680
WIRE 176 -176 128 -176
WIRE 320 -176 256 -176
WIRE 512 -176 464 -176
WIRE 416 -160 352 -160
WIRE 320 -144 320 -176
WIRE 512 -144 512 -176
WIRE 128 32 128 -176
WIRE 176 32 128 32
WIRE 320 32 256 32
WIRE 16 144 -64 144
WIRE 128 144 128 32
WIRE 128 144 96 144
WIRE 160 144 128 144
WIRE 320 160 320 32
WIRE 320 160 224 160
WIRE 368 160 320 160
WIRE 880 160 880 128
WIRE 960 160 880 160
WIRE -64 176 -64 144
WIRE 160 176 128 176
WIRE 960 192 960 160
WIRE 880 208 880 160
WIRE -64 224 -64 176
WIRE 128 272 128 176
FLAG 128 272 0
FLAG 960 192 0
FLAG 880 48 Vcc
FLAG 192 128 Vcc
FLAG 192 192 Vdd
FLAG 880 288 Vdd
FLAG -64 304 0
FLAG -64 176 Vin
FLAG 368 160 Vout
FLAG 624 -144 Vex
FLAG 640 48 Vex
FLAG 640 128 0
FLAG 320 -144 0
FLAG 320 240 0
FLAG 512 -144 0
SYMBOL OpAmps\\ADA4625-1 192 96 R0
WINDOW 3 8 80 Left 2
SYMATTR InstName U1
SYMBOL res 112 128 R90
WINDOW 0 0 56 VBottom 2
WINDOW 3 32 56 VTop 2
SYMATTR InstName R1
SYMATTR Value 10Meg
SYMBOL res 272 -192 R90
WINDOW 0 0 56 VBottom 2
WINDOW 3 32 54 VTop 2
SYMATTR InstName R2
SYMATTR Value 100k
SYMBOL voltage -64 208 R0
WINDOW 123 0 0 Left 0
WINDOW 39 0 0 Left 0
SYMATTR InstName V1
SYMATTR Value SINE(0 1m 1k)
SYMBOL voltage 880 32 R0
WINDOW 123 0 0 Left 0
WINDOW 39 0 0 Left 0
SYMATTR InstName V2
SYMATTR Value 15
SYMBOL voltage 880 192 R0
WINDOW 123 0 0 Left 0
WINDOW 39 0 0 Left 0
SYMATTR InstName V3
SYMATTR Value 15
SYMBOL res 560 -48 R90
WINDOW 0 0 56 VBottom 2
WINDOW 3 47 50 VTop 2
SYMATTR InstName R3
SYMATTR Value 1Meg
SYMBOL voltage 640 32 R0
WINDOW 123 0 0 Left 0
WINDOW 39 0 0 Left 0
SYMATTR InstName V4
SYMATTR Value 1
SYMBOL res 304 144 R0
SYMATTR InstName R4
SYMATTR Value 1k
SYMBOL res 272 16 R90
WINDOW 0 0 56 VBottom 2
WINDOW 3 28 56 VBottom 2
SYMATTR InstName R5
SYMATTR Value 10Meg
SYMBOL res 384 -144 R0
SYMATTR InstName R6
SYMATTR Value 1k
TEXT -98 366 Left 2 !.tran 0.01
